<NUMBER OF ZONES> 2
<TOTAL OD FLOW> 1000.0
<END OF METADATA>


Origin 	1 
    2 :  1000.0;