<NUMBER OF ZONES> 3
<TOTAL OD FLOW> 2000.0
<END OF METADATA>


Origin 	1 
    3 :  1000.0;

Origin 	2 
    3 :  1000.0;    