<NUMBER OF ZONES> 9								
<NUMBER OF NODES> 9											
<FIRST THRU NODE> 1											
<NUMBER OF LINKS> 12

<END OF METADATA>											


~ 	Init node 	Term node 	Capacity 	Length 	Free Flow Time 	Alpha	Beta	Speed limit 	Toll 	Type	;

~ Eastbound links
   1  2  100   1  2  0.5   1  30 0  0  ;
   2  3  100   1  2  0.5   1  30 0  0  ;   
   4  5  100   1  1  0.5   1  60 0  0  ;      
   5  6  100   1  1  0.5   1  60 0  0  ;         
   7  8  100   1  2  0.5   1  30 0  0  ;      
   8  9  100   1  2  0.5   1  30 0  0  ;         

~ Southbound links   
   7  4  100   1  2  0.5   1  30 0  0  ;         
   4  1  100   1  2  0.5   1  30 0  0  ;         
   8  5  100   1  2  0.5   1  30 0  0  ;         
   5  2  100   1  2  0.5   1  30 0  0  ;         
   9  6  100   1  2  0.5   1  30 0  0  ;         
   6  3  100   1  2  0.5   1  30 0  0  ;               
