<NUMBER OF ZONES> 4									
<NUMBER OF NODES> 4											
<FIRST THRU NODE> 3											
<NUMBER OF LINKS> 5
<END OF METADATA>											


~ 	Init node 	Term node 	Capacity 	Length 	Free Flow Time 	Alpha	Beta	Speed limit 	Toll 	Type	;
   1  2  1  1  2  10 1  60 1 0  ;
   1  3  1  1  4 0.02  1  60 0  0  ;
   2  3  1  1  1 0.1   1  60 0  0  ;
   2  4  1  1  5 0.02  1  60 0  0  ;
   3  4  1  1  2  10 1  60 1 0  ;
