<NUMBER OF ZONES> 4											
<NUMBER OF NODES> 13											
<FIRST THRU NODE> 1											
<NUMBER OF LINKS> 19	
<ORIGINAL HEADER>~ 	Init node 	Term node 	Capacity 	Length 	Free Flow Time 	B	Power	Speed limit 	Toll 	Type	;
<END OF METADATA>

~	init_node	term_node	capacity	length	free_flow_time	b	power	speed	toll	link_type	saturation_flow;
	1	5	4500	42	42	0.15	4	0	0	1	6	;
	1	12	4500	54	54	0.15	4	0	0	1	6	;
	4	5	4500	54	54	0.15	4	0	0	1	6	;
	4	9	2988	90	90	0.15	4	0	0	1	6	;
	5	6	5112	36	36	0.15	4	0	0	1	6	;
	5	9	6012	54	54	0.15	4	0	0	1	6	;
	6	7	4500	24	24	0.15	4	0	0	1	6	;
	6	10	2988	78	78	0.15	4	0	0	1	6	;
	7	8	2988	48	48	0.15	4	0	0	1	6	;
	7	11	3312	66	66	0.15	4	0	0	1	6	;
	8	2	4500	72	72	0.15	4	0	0	1	6	;
	9	10	8100	60	60	0.15	4	0	0	1	6	;
	9	13	2988	54	54	0.15	4	0	0	1	6	;
	10	11	6012	18	18	0.15	4	0	0	1	6	;
	11	2	4500	54	54	0.15	4	0	0	1	6	;
	11	3	4500	42	42	0.15	4	0	0	1	6	;
	12	6	2412	30	30	0.15	4	0	0	1	6	;
	12	8	4500	84	84	0.15	4	0	0	1	6	;
	13	3	2988	66	66	0.15	4	0	0	1	6	;
