<NUMBER OF ZONES> 4
<TOTAL OD FLOW> 10.0
<END OF METADATA>

Origin 	1 
    2 :  10.0;     

